/*--------------------------------*- C++ -*----------------------------------*\
| =========                 |                                                 |
| \\      /  F ield         | OpenFOAM: The Open Source CFD Toolbox           |
|  \\    /   O peration     | Version:  2.3.1                                 |
|   \\  /    A nd           | Web:      www.OpenFOAM.org                      |
|    \\/     M anipulation  |                                                 |
\*---------------------------------------------------------------------------*/
FoamFile
{
    version     2.0;
    format      ascii;
    class       volScalarField;
    location    "0";
    object      k;
}
// * * * * * * * * * * * * * * * * * * * * * * * * * * * * * * * * * * * * * //

dimensions      [0 2 -2 0 0 0 0];

internalField   uniform 0.00325;

boundaryField
{
        inlet
    {
        type            kqRWallFunction;
        value           uniform 0.00325;
    }

    outlet
    {
        type            kqRWallFunction;
        value           uniform 0.00325;
    }

    top
    {
        type            kqRWallFunction;
        value           uniform 0.00325;
    }
    
    bottom
    {
        type            kqRWallFunction;
        value           uniform 0.00325;
    }

    cylinder
    {
        type            kqRWallFunction;
        value           uniform 0.00325;
    }

    sides
    {
        type            empty;
    }

}


// ************************************************************************* //
