/*--------------------------------*- C++ -*----------------------------------*\
| =========                 |                                                 |
| \\      /  F ield         | OpenFOAM: The Open Source CFD Toolbox           |
|  \\    /   O peration     | Version:  2.3.1                                 |
|   \\  /    A nd           | Web:      www.OpenFOAM.org                      |
|    \\/     M anipulation  |                                                 |
\*---------------------------------------------------------------------------*/
FoamFile
{
    version     2.0;
    format      binary;
    class       polyBoundaryMesh;
    location    "constant/polyMesh";
    object      boundary;
}
// * * * * * * * * * * * * * * * * * * * * * * * * * * * * * * * * * * * * * //

6
(
    inlet
    {
        type            wall;
        inGroups        1(wall);
        nFaces          90;
        startFace       36290;
    }
    outlet
    {
        type            wall;
        inGroups        1(wall);
        nFaces          90;
        startFace       36380;
    }
    top
    {
        type            wall;
        inGroups        1(wall);
        nFaces          120;
        startFace       36470;
    }
    bottom
    {
        type            wall;
        inGroups        1(wall);
        nFaces          120;
        startFace       36590;
    }
    cylinder
    {
        type            wall;
        inGroups        1(wall);
        nFaces          200;
        startFace       36710;
    }
    defaultFaces
    {
        type            empty;
        inGroups        1(empty);
        nFaces          36600;
        startFace       36910;
    }
)

// ************************************************************************* //
